OPF of LoopNetwork with HVDC/testDemo/testcase.txt
 08/19/93 UW ARCHIVE           100.0  1962 W Test Case
BUS DATA FOLLOWS                            14 ITEMS
   1 Bus 1     HV  1  1  0 1.000    0.0    160.0       80      0.0     0.0     0.0    0.0     0.0     0.0   0.0    0.0        0
   2 Bus 2     HV  1  1  0 1.000    0.0    200.0    100.0      0.0     0.0     0.0    0.0     0.0     0.0   0.0    0.0        0
   3 Bus 3     HV  1  1  0 1.000    0.0    370.0    130.0      0.0     0.0     0.0    0.0     0.0     0.0   0.0    0.0        0
   4 Bus 4     HV  1  1  2 1.050    0.0      0.0      0.0    500.0     0.0     0.0    0.0     0.0     0.0   0.0    0.0        0
   5 Bus 5     HV  1  1  3 1.050    0.0      0.0      0.0      0.0     0.0     0.0    0.0     0.0     0.0   0.0    0.0        0
-999 
BRANCH DATA FOLLOWS                         20 ITEMS
   1    2  1  1 1 0     0.04      0.25        0.5     0     0     0    0 0     0.0     0.0    0.0    0.0    0.0    0.0    0.0
   1    3  1  1 1 0      0.1      0.35        0.0     0     0     0    0 0     0.0     0.0    0.0    0.0    0.0    0.0    0.0
   2    3  1  1 1 0     0.08       0.3        0.5     0     0     0    0 0     0.0     0.0    0.0    0.0    0.0    0.0    0.0
   2    4  1  1 1 0      0.0     0.015        0.0     0     0     0    0 0    1.05     0.0    0.0    0.0    0.0    0.0    0.0
   3    5  1  1 1 0      0.0      0.03        0.0     0     0     0    0 0    1.05     0.0    0.0    0.0    0.0    0.0    0.0
-999
LOSS ZONES FOLLOWS                     1 ITEMS
  1 IEEE 14 BUS
-99
INTERCHANGE DATA FOLLOWS                 1 ITEMS
 1    2 Bus 2     HV    0.0  999.99  IEEE14  IEEE 14 Bus Test Case
-9
TIE LINES FOLLOWS                     0 ITEMS
-999
END OF DATA
